powerflow/Codes/PF_Formulation/resultados_csv/16/500bus/barras.csv
caso,script,bus_id,vm_pu,va_rad,pd_pu,qd_pu,pg_pu,qg_pu,bus_type
500bus.pwf,16,1,1.0117495473251426,-0.15095896751105783,0.0,0.0,0.0,0.0,1
500bus.pwf,16,2,1.0111697686393688,-0.15221326976899666,0.428,0.11410000000000001,0.0,0.0,1
500bus.pwf,16,3,1.003806645999984,-0.1738179213735175,0.0,0.0,0.0,0.0,1
500bus.pwf,16,4,1.0016376601275676,-0.17821808723286456,1.327,0.3538,0.0,0.0,1
500bus.pwf,16,5,1.014465274811112,0.015011012302658411,0.0,0.0,0.0,0.0,1
500bus.pwf,16,6,1.0144176112795402,0.014904390970890196,0.03213,0.00857,0.0,0.0,1
500bus.pwf,16,7,1.034577917103402,-0.08397022190764244,0.0,0.0,0.0,0.0,1
500bus.pwf,16,8,1.0256169344667678,-0.115002281485268,0.0,0.0,0.0,0.0,1
500bus.pwf,16,9,1.0433560691688624,-0.035340614659778884,0.0,0.0,7.718,1.4642803770200208,2
500bus.pwf,16,10,1.0166338458847612,-0.20775392888348188,0.0,0.0,0.0,0.0,1
500bus.pwf,16,11,1.0165971021628477,-0.20782629783890064,0.02472,0.00659,0.0,0.0,1
500bus.pwf,16,12,0.9945416336273231,-0.22261794721924577,0.0,0.0,0.0,0.0,1
500bus.pwf,16,13,0.9939945623675662,-0.22373337397763668,0.3716,0.09910000000000001,0.0,0.0,1
500bus.pwf,16,14,1.027473989055222,-0.043792071606403866,0.0,0.0,0.0,0.0,1
500bus.pwf,16,15,1.0209527509299325,-0.08584903730090007,0.0,0.0,0.0,0.0,1
500bus.pwf,16,16,1.035615462396652,0.006217567501536492,0.0,0.0,4.444,0.6916353251239955,2
500bus.pwf,16,17,1.0326751744380722,0.0,0.0,0.0,6.476809247279731,0.7460423309704737,3
500bus.pwf,16,18,1.0389672555774774,0.03146285676695014,0.0,0.0,1.5759999999999998,0.24885662149238266,2
500bus.pwf,16,19,1.0173566831663605,-0.2132421681645274,0.0,0.0,0.0,0.0,1
500bus.pwf,16,20,1.0172861341749746,-0.21340635396340069,0.045419999999999995,0.012110000000000001,0.0,0.0,1
500bus.pwf,16,21,1.008770558008676,-0.1786597227677125,0.0,0.0,0.0,0.0,1
500bus.pwf,16,22,1.006643114524756,-0.18307828572077328,1.4869999999999999,0.39649999999999996,0.0,0.0,1
500bus.pwf,16,23,1.02592890211929,-0.10328456495736198,0.0,0.0,0.0,0.0,1
500bus.pwf,16,24,1.0110192508352078,-0.15006130385766275,0.0,0.0,0.0,0.0,1
500bus.pwf,16,25,1.01098343957224,-0.15013868818816634,0.02283,0.00609,0.0,0.0,1
500bus.pwf,16,26,1.0106850273008234,-0.15081999507480356,0.21660000000000001,0.05777,0.0,0.0,1
500bus.pwf,16,27,1.0373944527614036,-0.24771271609294035,0.0,0.0,0.0,0.0,1
500bus.pwf,16,28,1.036332443230113,-0.24992514044755662,0.6293,0.1678,0.0,0.0,1
500bus.pwf,16,29,1.0058520129165378,-0.21801996346439262,0.0,0.0,0.0,0.0,1
500bus.pwf,16,30,1.004358175133806,-0.22112142089292183,0.9997,0.2666,0.0,0.0,1
500bus.pwf,16,31,1.031975657295757,-0.26125276333167213,0.0,0.0,0.0,0.0,1
500bus.pwf,16,32,1.0318296465694021,-0.2615519051894483,0.09765,0.02604,0.0,0.0,1
500bus.pwf,16,33,1.0054434149295925,-0.2304548550588674,0.0,0.0,0.0,0.0,1
500bus.pwf,16,34,1.0050699621171424,-0.23122599249826073,0.25,0.06666,0.0,0.0,1
500bus.pwf,16,35,1.0173971851922858,-0.2407284207882044,0.0,0.0,0.0,0.0,1
500bus.pwf,16,36,1.0168031311089736,-0.24193297342871595,0.4335,0.11560000000000001,0.0,0.0,1
500bus.pwf,16,37,1.019217146320522,0.021647442285919916,0.0,0.0,0.0,0.0,1
500bus.pwf,16,38,1.019215194028374,0.02164287165547778,0.0012900000000000001,0.00034,0.0,0.0,1
500bus.pwf,16,39,1.0287430015533179,-0.09985571671614972,0.0,0.0,0.0,0.0,1
500bus.pwf,16,40,1.0223136510242519,-0.12068781464077821,0.0,0.0,0.0,0.0,1
500bus.pwf,16,41,1.0213592656418613,-0.12277288801462855,0.5799,0.15460000000000002,0.0,0.0,1
500bus.pwf,16,42,1.0246822598560503,-0.20068753923818342,0.0,0.0,0.0,0.0,1
500bus.pwf,16,43,1.0246219943575061,-0.2008138434359622,0.044610000000000004,0.011899999999999999,0.0,0.0,1
500bus.pwf,16,44,1.0178769836987847,-0.1336587771477955,0.0,0.0,0.0,0.0,1
500bus.pwf,16,45,1.0178436938316513,-0.13373144723341143,0.02031,0.00542,0.0,0.0,1
500bus.pwf,16,46,0.9971976449779238,-0.19407771915318786,0.0,0.0,0.0,0.0,1
500bus.pwf,16,47,0.996532849686155,-0.19551640473509116,0.4341,0.1158,0.0,0.0,1
500bus.pwf,16,48,1.0152902190706412,-0.2784841387010342,0.0,0.0,0.0,0.0,1
500bus.pwf,16,49,1.015018035532127,-0.27495000311001727,0.0,0.0,0.013000000000000001,-0.0015900098346595063,2
500bus.pwf,16,50,1.0149537945270757,-0.27433532622017953,0.0,0.0,0.026000000000000002,-0.0031700097807607795,2
500bus.pwf,16,51,1.0152762867000322,-0.27849469641817853,0.0035399999999999997,0.00094,0.0,0.0,1
500bus.pwf,16,52,1.0149341757508061,-0.2792039017340828,0.2339,0.06237,0.0,0.0,1
500bus.pwf,16,53,1.0117173831927608,-0.19445900143709657,0.0,0.0,0.0,0.0,1
500bus.pwf,16,54,1.011201744141255,-0.195438912790756,0.3481,0.09282,0.0,0.0,1
500bus.pwf,16,55,1.0238730368084281,-0.19007460512203425,0.0,0.0,0.0,0.0,1
500bus.pwf,16,56,1.0238380293324816,-0.19014179181736754,0.02253,0.00601,0.0,0.0,1
500bus.pwf,16,57,1.0120502138598158,-0.13876295557125284,0.0,0.0,0.0,0.0,1
500bus.pwf,16,58,1.0049056601856914,-0.1846552268527402,0.0,0.0,0.0,0.0,1
500bus.pwf,16,59,1.0025771601575522,-0.1898057700141968,1.409,0.37579999999999997,0.0,0.0,1
500bus.pwf,16,60,1.0188132742897051,-0.13003188080626366,0.0,0.0,0.0,0.0,1
500bus.pwf,16,61,1.0188103074244474,-0.13003851323846982,0.0020399999999999997,0.00054,0.0,0.0,1
500bus.pwf,16,62,1.0066019646535285,-0.17094043963602693,0.0,0.0,0.0,0.0,1
500bus.pwf,16,63,1.0066019646535285,-0.17094043963602693,0.0,0.0,0.0,0.0,2
500bus.pwf,16,64,1.006071523082252,-0.17200435692711918,0.3478,0.09273999999999999,0.0,0.0,1
500bus.pwf,16,65,1.0263102330015874,-0.1527602590472119,0.0,0.0,0.0,0.0,1
500bus.pwf,16,66,1.0245942142801594,-0.17895242661036703,0.0,0.0,0.0,0.0,1
500bus.pwf,16,67,1.024523434625659,-0.17909067972113904,0.04569,0.01218,0.0,0.0,1
500bus.pwf,16,68,1.0255896238547755,-0.1924809311127361,0.0,0.0,0.0,0.0,1
500bus.pwf,16,69,1.0253016530907293,-0.19309689770375849,0.1696,0.04523,0.0,0.0,1
500bus.pwf,16,70,0.9960493535171002,-0.2277557570277744,0.0,0.0,0.0,0.0,1
500bus.pwf,16,71,0.9960010927167516,-0.22595061569906597,0.0,0.0,0.04,-0.0019600060135094356,2
500bus.pwf,16,72,0.9959612469559856,-0.22483338995431648,0.0,0.0,0.02,-0.000980005913616679,2
500bus.pwf,16,73,0.9961560199739715,-0.22390035337405614,0.0,0.0,0.013999999999999999,-0.00023482153851505147,2
500bus.pwf,16,74,1.024368790741914,-0.2585292176365592,0.0,0.0,0.0,0.0,1
500bus.pwf,16,75,1.024292233251323,-0.25869000399057696,0.05301,0.01414,0.0,0.0,1
500bus.pwf,16,76,1.0177164986706604,0.03704796821952038,0.0,0.0,0.0,0.0,1
500bus.pwf,16,77,1.0176086583275483,0.03683806586296293,0.06951,0.01854,0.0,0.0,1
500bus.pwf,16,78,1.014125915907286,-0.12583632204356446,0.0,0.0,0.0,0.0,1
500bus.pwf,16,79,1.0141193416736387,-0.12584767476427094,0.00381,0.0010199999999999999,0.0,0.0,1
500bus.pwf,16,80,1.03145523636827,-0.14301034950788455,0.0,0.0,0.0,0.0,1
500bus.pwf,16,81,1.026987492293985,-0.18590859817993008,0.0,0.0,0.0,0.0,1
500bus.pwf,16,82,1.0367506329585274,-0.037590639989667884,0.0,0.0,3.6189999999999998,0.3170707524265514,2
500bus.pwf,16,83,1.0038258803476874,-0.2381557525960879,0.0,0.0,0.0,0.0,1
500bus.pwf,16,84,1.0028360685985729,-0.24028177458137664,0.6141,0.1638,0.0,0.0,1
500bus.pwf,16,85,1.0254504823656152,-0.24071254376789614,0.0,0.0,0.0,0.0,1
500bus.pwf,16,86,1.025159630093983,-0.2413361501157007,0.1759,0.04691,0.0,0.0,1
500bus.pwf,16,87,1.0014987295872102,0.051316951710846576,0.0,0.0,0.0,0.0,1
500bus.pwf,16,88,1.0014161148468967,0.0511387376743034,0.05253,0.01401,0.0,0.0,1
500bus.pwf,16,89,1.0153402656755859,-0.1573023856659767,0.0,0.0,0.0,0.0,1
500bus.pwf,16,90,1.0152484276917009,-0.15751516367404372,0.05901,0.01574,0.0,0.0,1
500bus.pwf,16,91,1.0112937022831896,-0.11257926763472767,0.0,0.0,0.0,0.0,1
500bus.pwf,16,92,1.010301743000001,-0.11478441430153873,0.6503,0.1734,0.0,0.0,1
500bus.pwf,16,93,1.0153114663985494,-0.07457523906424157,0.0,0.0,0.0,0.0,1
500bus.pwf,16,94,1.0152390263740085,-0.07473400342783418,0.052140000000000006,0.0139,0.0,0.0,1
500bus.pwf,16,95,1.0116742072853748,-0.11121287543039501,0.0,0.0,0.0,0.0,1
500bus.pwf,16,96,1.011192206799156,-0.11224419951019114,0.34,0.09066,0.0,0.0,1
500bus.pwf,16,97,1.0293031728615276,-0.2892788866487465,0.0,0.0,0.0,0.0,1
500bus.pwf,16,98,1.0287071136523411,-0.29062104828405166,0.3709,0.09891,0.0,0.0,1
500bus.pwf,16,99,1.0231718316687324,-0.12154363118025088,0.0,0.0,0.0,0.0,1
500bus.pwf,16,100,1.0229586421860521,-0.12198902066301756,0.1352,0.03606,0.0,0.0,1
500bus.pwf,16,101,1.0231578027994417,-0.1215700185911289,0.00891,0.0023799999999999997,0.0,0.0,1
500bus.pwf,16,102,1.0124112114814603,-0.2541532838421375,0.0,0.0,0.0,0.0,1
500bus.pwf,16,103,1.0117729603354282,-0.2555577933521836,0.38799999999999996,0.1035,0.0,0.0,1
500bus.pwf,16,104,1.0181607670750366,-0.26802732216364866,0.0,0.0,0.0,0.0,1
500bus.pwf,16,105,1.0168350729919737,-0.2707985621409595,0.8033,0.21420000000000003,0.0,0.0,1
500bus.pwf,16,106,1.0197991694519233,-0.2214743234176951,0.0,0.0,0.0,0.0,1
500bus.pwf,16,107,1.0195744431951723,-0.2219440879833892,0.16,0.042679999999999996,0.0,0.0,1
500bus.pwf,16,108,1.014900345594236,-0.13863114396825452,0.0,0.0,0.0,0.0,1
500bus.pwf,16,109,1.0142141100095383,-0.1399411692338347,0.4758,0.12689999999999999,0.0,0.0,1
500bus.pwf,16,110,1.0268235567907482,-0.04877629032596518,0.0,0.0,0.0,0.0,1
500bus.pwf,16,111,1.025901099771266,-0.05088600328961236,0.6229,0.1661,0.0,0.0,1
500bus.pwf,16,112,1.012963922142543,-0.20394077281884315,0.0,0.0,0.0,0.0,1
500bus.pwf,16,113,1.012292430196415,-0.2052627715214025,0.45990000000000003,0.1226,0.0,0.0,1
500bus.pwf,16,114,1.0189444692485745,-0.24771505660457976,0.0,0.0,0.0,0.0,1
500bus.pwf,16,115,1.0188744711770519,-0.2478722433663894,0.05061,0.013500000000000002,0.0,0.0,1
500bus.pwf,16,116,1.01890113563116,-0.24781279433458592,0.030990000000000004,0.00826,0.0,0.0,1
500bus.pwf,16,117,1.0054320982803462,-0.21160279023422915,0.0,0.0,0.0,0.0,1
500bus.pwf,16,118,1.0052854056781106,-0.21192440541770835,0.08832000000000001,0.02355,0.0,0.0,1
500bus.pwf,16,119,0.9893624763260725,-0.2286923411753463,0.0,0.0,0.0,0.0,1
500bus.pwf,16,120,0.9889221495848092,-0.22963376143023975,0.3165,0.08439999999999999,0.0,0.0,1
500bus.pwf,16,121,1.007087521237956,-0.2070604798219735,0.0,0.0,0.0,0.0,1
500bus.pwf,16,122,1.006247594020153,-0.20900792873399834,0.5336,0.1423,0.0,0.0,1
500bus.pwf,16,123,1.0294807543594309,-0.03878187997105238,0.0,0.0,0.0,0.0,1
500bus.pwf,16,124,1.0273472126999192,-0.05085369529774441,0.0,0.0,0.0,0.0,1
500bus.pwf,16,125,1.0294807543594309,-0.03878187997105238,0.0,0.0,0.0,0.0,2
500bus.pwf,16,126,1.0294807543594309,-0.03878187997105238,0.0,0.0,0.0,0.0,2
500bus.pwf,16,127,1.039047802078162,0.03376525142204114,0.0,0.0,1.62,0.25331164110404725,2
500bus.pwf,16,128,1.0371289039634537,-0.014806233562543862,0.0,0.0,1.62,0.5034559872257005,2
500bus.pwf,16,129,0.9872296887063128,-0.24129348227492892,0.0,0.0,0.0,0.0,1
500bus.pwf,16,130,0.985593133266716,-0.24451209442359892,1.032,0.2753,0.0,0.0,1
500bus.pwf,16,131,1.0195392173264495,-0.1279445479431131,0.0,0.0,0.0,0.0,1
500bus.pwf,16,132,1.0191339179363452,-0.12877778236629783,0.252,0.06721,0.0,0.0,1
500bus.pwf,16,133,1.0124239381218425,-0.1109188466788097,0.0,0.0,0.0,0.0,1
500bus.pwf,16,134,1.0118591551540088,-0.11214497016607793,0.4265,0.1137,0.0,0.0,1
500bus.pwf,16,135,1.011491934252145,-0.1606492512569467,0.0,0.0,0.0,0.0,1
500bus.pwf,16,136,1.0110882812964432,-0.1615687868445267,0.2676,0.07135,0.0,0.0,1
500bus.pwf,16,137,1.0076716909481316,-0.21343403842911973,0.0,0.0,0.0,0.0,1
500bus.pwf,16,138,1.0064426282968642,-0.21625848832091513,0.787,0.20989999999999998,0.0,0.0,1
500bus.pwf,16,139,1.0152885713398205,-0.13826107099588308,0.0,0.0,0.0,0.0,1
500bus.pwf,16,140,1.015284864799642,-0.1382685343096179,0.00255,0.00068,0.0,0.0,1
500bus.pwf,16,141,1.0013112119295344,-0.005179195936953489,0.0,0.0,0.0,0.0,1
500bus.pwf,16,142,0.9987167362844592,-0.0103947946708726,1.6130000000000002,0.4302,0.0,0.0,1
500bus.pwf,16,143,1.0188700184146104,0.15084314488948308,0.0,0.0,0.0,0.0,1
500bus.pwf,16,144,1.0399963005445674,0.36955790563127583,0.0,0.0,6.025,1.1131979066893904,2
500bus.pwf,16,145,1.039993179849184,0.19756829736350215,0.0,0.0,2.9819999999999998,1.267070824372276,2
500bus.pwf,16,146,1.0283086152819418,-0.10044502334738631,0.0,0.0,0.0,0.0,1
500bus.pwf,16,147,1.0167613427613487,-0.11204269492159702,0.0,0.0,0.0,0.0,1
500bus.pwf,16,148,1.0158310381603952,-0.11414249931473744,0.5742,0.1531,0.0,0.0,1
500bus.pwf,16,149,1.0241111006143897,-0.20044585081809896,0.0,0.0,0.0,0.0,1
500bus.pwf,16,150,1.0240858161759963,-0.20049602513737974,0.015029999999999998,0.0040100000000000005,0.0,0.0,1
500bus.pwf,16,151,1.0263083845448648,-0.10467027875873876,0.0,0.0,0.0,0.0,1
500bus.pwf,16,152,1.0179771654800107,-0.14639821850155843,0.0,0.0,0.0,0.0,1
500bus.pwf,16,153,1.01672796613148,-0.1490722789971579,0.9315000000000001,0.2484,0.0,0.0,1
500bus.pwf,16,154,1.008980515107607,-0.1542438903765805,0.0,0.0,0.0,0.0,1
500bus.pwf,16,155,1.0080943435235303,-0.1561253210070144,0.6684,0.1782,0.0,0.0,1
500bus.pwf,16,156,0.9855906596876397,-0.2182395277772419,0.0,0.0,0.0,0.0,1
500bus.pwf,16,157,0.9839203702366855,-0.2219598403519362,1.055,0.2812,0.0,0.0,1
500bus.pwf,16,158,1.0074553315797854,-0.1994849659244487,0.0,0.0,0.0,0.0,1
500bus.pwf,16,159,1.0070844252775895,-0.20032119785211386,0.2285,0.06094,0.0,0.0,1
500bus.pwf,16,160,1.0191939640069714,-0.226466268528028,0.0,0.0,0.0,0.0,1
500bus.pwf,16,161,1.0188095126580745,-0.22732084627613253,0.2595,0.06921000000000001,0.0,0.0,1
500bus.pwf,16,162,1.0285609860217098,-0.09977191317465915,0.0,0.0,0.0,0.0,1
500bus.pwf,16,163,1.0246892761998583,-0.1134051838666259,0.0,0.0,0.0,0.0,1
500bus.pwf,16,164,1.023039174118243,-0.11697625394966726,0.9815,0.26170000000000004,0.0,0.0,1
500bus.pwf,16,165,1.0297470332630747,-0.03298930728085772,0.0,0.0,0.0,0.0,1
500bus.pwf,16,166,1.025307299146379,-0.05604595792955487,0.0,0.0,0.0,0.0,1
500bus.pwf,16,167,1.038119698360823,0.0058915887106603775,0.0,0.0,1.935,0.3988708998627706,2
500bus.pwf,16,168,1.0388560573395043,0.03116486112574011,0.0,0.0,1.935,0.31283443214345874,2
500bus.pwf,16,169,1.0384081460726324,0.059565547406842105,0.0,0.0,3.87,0.4775612998946899,2
500bus.pwf,16,170,1.0111838161405813,-0.11369373443712005,0.0,0.0,0.0,0.0,1
500bus.pwf,16,171,1.010997087396135,-0.11413413745765408,0.12380000000000001,0.033,0.0,0.0,1
500bus.pwf,16,172,1.0064290146670833,-0.18926441946176428,0.0,0.0,0.0,0.0,1
500bus.pwf,16,173,1.0063813903606136,-0.18935572872309267,0.031349999999999996,0.00836,0.0,0.0,1
500bus.pwf,16,174,1.0063271056792613,-0.1894722354154762,0.07305,0.01948,0.0,0.0,1
500bus.pwf,16,175,1.033520463797416,-0.024467402886085402,0.0,0.0,0.0,0.0,1
500bus.pwf,16,176,1.0228734878234351,-0.00988774156760117,0.0,0.0,0.0,0.0,1
500bus.pwf,16,177,1.0227420593670598,-0.010181566257468138,0.08781,0.02342,0.0,0.0,1
500bus.pwf,16,178,1.0227718309330964,-0.010081368125045218,0.06813,0.01817,0.0,0.0,1
500bus.pwf,16,179,1.0004831387750666,-0.2209929287494023,0.0,0.0,0.0,0.0,1
500bus.pwf,16,180,1.0002606170070307,-0.2214333981997509,0.1414,0.0377,0.0,0.0,1
500bus.pwf,16,181,1.043485331187034,-0.2873427467374953,0.0,0.0,0.0,0.0,1
500bus.pwf,16,182,1.0421896125481525,-0.2900361107284889,0.8261,0.22030000000000002,0.0,0.0,1
500bus.pwf,16,183,1.0242490196908174,-0.07963092084617916,0.0,0.0,0.0,0.0,1
500bus.pwf,16,184,1.0238526020271945,-0.08045508878959828,0.3018,0.08047,0.0,0.0,1
500bus.pwf,16,185,1.009092609069778,-0.14041937250543948,0.0,0.0,0.0,0.0,1
500bus.pwf,16,186,1.0084711800094004,-0.14171874815198673,0.4535,0.1209,0.0,0.0,1
500bus.pwf,16,187,1.0145710852309318,-0.16407486351559644,0.0,0.0,0.0,0.0,1
500bus.pwf,16,188,1.0144069637040305,-0.16439338258659142,0.1105,0.02946,0.0,0.0,1
500bus.pwf,16,189,1.0272432870118973,-0.26346217031530017,0.0,0.0,0.0,0.0,1
500bus.pwf,16,190,1.0270385811280216,-0.2638390517485447,0.1407,0.03752,0.0,0.0,1
500bus.pwf,16,191,1.0196133006754395,-0.23833319392320237,0.0,0.0,0.0,0.0,1
500bus.pwf,16,192,1.0193405861945115,-0.23889961569035828,0.16440000000000002,0.043840000000000004,0.0,0.0,1
500bus.pwf,16,193,1.0142543240147104,-0.21245725885471944,0.0,0.0,0.0,0.0,1
500bus.pwf,16,194,1.0137698465295437,-0.2134663526166471,0.2869,0.07652,0.0,0.0,1
500bus.pwf,16,195,1.0286285147279168,-0.10028816536831557,0.0,0.0,0.0,0.0,1
500bus.pwf,16,196,1.0191186426056789,-0.13976266551494476,0.0,0.0,0.0,0.0,1
500bus.pwf,16,197,1.0402967358429576,-0.015333050226057363,0.0,0.0,2.9360000000000004,0.4589319418535266,2
500bus.pwf,16,198,1.0404198488988499,-0.058157034171047624,0.0,0.0,2.073,0.5682945981046664,2
500bus.pwf,16,199,1.0177769796740415,-0.14236746337204145,0.8639,0.2304,0.0,0.0,1
500bus.pwf,16,200,1.0202165262280711,-0.12667406694759714,0.0,0.0,0.0,0.0,1
500bus.pwf,16,201,1.0200830079567837,-0.12692957185473913,0.08889,0.023700000000000002,0.0,0.0,1
500bus.pwf,16,202,1.0040665845053365,-0.17901614635515006,0.0,0.0,0.0,0.0,1
500bus.pwf,16,203,1.0039908348198119,-0.1791763238591428,0.04689,0.0125,0.0,0.0,1
500bus.pwf,16,204,1.0033405487127096,-0.18071233719492683,0.4567,0.12179999999999999,0.0,0.0,1
500bus.pwf,16,205,1.0214372658803843,-0.25466028484659015,0.0,0.0,0.0,0.0,1
500bus.pwf,16,206,1.0213968838179581,-0.2547433093263215,0.03009,0.008020000000000001,0.0,0.0,1
500bus.pwf,16,207,1.02107412433271,-0.2554233078147689,0.2257,0.06019,0.0,0.0,1
500bus.pwf,16,208,1.0170241461002791,-0.25082903279320945,0.0,0.0,0.0,0.0,1
500bus.pwf,16,209,1.015831835375608,-0.2535735872507911,0.8186,0.2183,0.0,0.0,1
500bus.pwf,16,210,1.0011359610587256,-0.17468869910876386,0.0,0.0,0.0,0.0,1
500bus.pwf,16,211,1.0005569346466066,-0.17592132293509044,0.3428,0.09141,0.0,0.0,1
500bus.pwf,16,212,1.0193426088427322,-0.22331837542130137,0.0,0.0,0.0,0.0,1
500bus.pwf,16,213,1.0177941138367392,-0.22662366077176796,0.9748,0.26,0.0,0.0,1
500bus.pwf,16,214,1.0044621464228531,-0.22766032567027775,0.0,0.0,0.0,0.0,1
500bus.pwf,16,215,1.0031134303156033,-0.23072806099240198,0.8448,0.2253,0.0,0.0,1
500bus.pwf,16,216,0.9925283902989863,-0.23372852355550405,0.0,0.0,0.0,0.0,1
500bus.pwf,16,217,0.9917292790225534,-0.2353905270418568,0.551,0.1469,0.0,0.0,1
500bus.pwf,16,218,1.0259639774728724,-0.23628301409151922,0.0,0.0,0.0,0.0,1
500bus.pwf,16,219,1.0259586726143153,-0.23629405576822618,0.00333,0.00089,0.0,0.0,1
500bus.pwf,16,220,1.0353332690283692,-0.030530478551197688,0.0,0.0,0.0,0.0,1
500bus.pwf,16,221,1.0232316317893575,-0.08514765995689538,0.0,0.0,0.0,0.0,1
500bus.pwf,16,222,1.0356713612368171,-0.02945806700556958,0.0,0.0,0.052000000000000005,0.014632350819657074,2
500bus.pwf,16,223,1.0374595607701953,-0.025436144848290265,0.0,0.0,0.18,0.06911990618771419,2
500bus.pwf,16,224,1.0393900392610687,0.026511980110795735,0.0,0.0,5.112,0.3929136137927221,2
500bus.pwf,16,225,1.0388216925696931,-0.0008509755646445372,0.0,0.0,5.148,0.5852168145374151,2
500bus.pwf,16,226,1.011643812147898,-0.11385127602189779,0.0,0.0,0.0,0.0,1
500bus.pwf,16,227,1.0115595924566094,-0.11401915230868273,0.054240000000000003,0.014459999999999999,0.0,0.0,1
500bus.pwf,16,228,1.0078033550357242,-0.1253899046197352,0.0,0.0,0.0,0.0,1
500bus.pwf,16,229,1.0069706422688134,-0.1272191033203675,0.5409,0.1442,0.0,0.0,1
500bus.pwf,16,230,1.0277679054654003,-0.20153842577465722,0.0,0.0,0.0,0.0,1
500bus.pwf,16,231,1.0272073676978366,-0.19634071616242632,0.0,0.0,0.028999999999999998,-0.003540009789067719,2
500bus.pwf,16,232,1.028450296423259,-0.11564603320334971,0.0,0.0,0.0,0.0,1
500bus.pwf,16,233,1.0157545309734959,-0.17391234717911774,0.0,0.0,0.0,0.0,1
500bus.pwf,16,234,1.014889192314748,-0.1758130675493975,0.5996,0.15990000000000001,0.0,0.0,1
500bus.pwf,16,235,1.0288463206144207,-0.18403818814998696,0.0,0.0,0.0,0.0,1
500bus.pwf,16,236,1.02155336630787,-0.20523844279259024,0.0,0.0,0.0,0.0,1
500bus.pwf,16,237,1.021511024533764,-0.20532060521682577,0.027120000000000002,0.0072299999999999994,0.0,0.0,1
500bus.pwf,16,238,1.0075519499178158,-0.17018359903359298,0.0,0.0,0.0,0.0,1
500bus.pwf,16,239,1.0069765998684035,-0.1715264045705451,0.39130000000000004,0.10439999999999999,0.0,0.0,1
500bus.pwf,16,240,1.0223834670684542,-0.2527211044643251,0.0,0.0,0.0,0.0,1
500bus.pwf,16,241,1.0220734806374268,-0.25344629788814005,0.1974,0.05264,0.0,0.0,1
500bus.pwf,16,242,1.00079168767841,-0.2411101237562891,0.0,0.0,0.0,0.0,1
500bus.pwf,16,243,0.9996014378387142,-0.2437459713499423,0.7447,0.1986,0.0,0.0,1
500bus.pwf,16,244,1.0092627848653797,-0.19430796908283168,0.0,0.0,0.0,0.0,1
500bus.pwf,16,245,1.0090934411164671,-0.194655851627944,0.1184,0.031560000000000005,0.0,0.0,1
500bus.pwf,16,246,1.0307858948631514,-0.09575897845401828,0.0,0.0,0.0,0.0,1
500bus.pwf,16,247,1.025455694857981,-0.0832622008712513,0.0,0.0,0.0,0.0,1
500bus.pwf,16,248,1.0307858948631514,-0.09575897845401828,0.0,0.0,0.0,0.0,2
500bus.pwf,16,249,1.0307858948631514,-0.09575897845401828,0.0,0.0,0.0,0.0,2
500bus.pwf,16,250,1.0307858948631514,-0.09575897845401828,0.0,0.0,0.0,0.0,2
500bus.pwf,16,251,0.9903690802138744,-0.20876284677109683,0.0,0.0,0.0,0.0,1
500bus.pwf,16,252,0.9883279544572904,-0.21323386820032508,1.187,0.3165,0.0,0.0,1
500bus.pwf,16,253,0.9925038638709411,-0.21583904061307083,0.0,0.0,0.0,0.0,1
500bus.pwf,16,254,0.9925038638709411,-0.21583904061307083,0.0,0.0,0.0,0.0,2
500bus.pwf,16,255,0.9925038638709411,-0.21583904061307083,0.0,0.0,0.0,0.0,2
500bus.pwf,16,256,0.9925038638709411,-0.21583904061307083,0.0,0.0,0.0,0.0,2
500bus.pwf,16,257,0.9925038638709411,-0.21583904061307083,0.0,0.0,0.0,0.0,2
500bus.pwf,16,258,0.9922531545905791,-0.21293014620473866,0.0,0.0,0.011000000000000001,-0.0013400072843032219,2
500bus.pwf,16,259,0.9923707530601045,-0.2161209528636982,0.0816,0.02176,0.0,0.0,1
500bus.pwf,16,260,1.0257376167681913,-0.05507765993847562,0.0,0.0,0.0,0.0,1
500bus.pwf,16,261,1.0254715945289627,-0.05563928691807403,0.1868,0.04982,0.0,0.0,1
500bus.pwf,16,262,1.0273989279432707,-0.12043859488121773,0.0,0.0,0.0,0.0,1
500bus.pwf,16,263,1.0171012099633925,-0.19454994421991842,0.0,0.0,0.0,0.0,1
500bus.pwf,16,264,1.0273989279432707,-0.12043859488121773,0.0,0.0,0.0,0.0,2
500bus.pwf,16,265,1.0273989279432707,-0.12043859488121773,0.0,0.0,0.0,0.0,2
500bus.pwf,16,266,1.0162002025323893,-0.19649467230962717,0.6178,0.1648,0.0,0.0,1
500bus.pwf,16,267,1.0154382628558225,-0.2820378890354332,0.0,0.0,0.0,0.0,1
500bus.pwf,16,268,1.0137484237916943,-0.2859517338935433,1.171,0.3124,0.0,0.0,1
500bus.pwf,16,269,1.0154317269287858,-0.08954152421232135,0.0,0.0,0.0,0.0,1
500bus.pwf,16,270,1.0153222611702777,-0.08979375607050816,0.06801,0.01814,0.0,0.0,1
500bus.pwf,16,271,1.028210341024601,-0.187325646023174,0.0,0.0,0.0,0.0,1
500bus.pwf,16,272,1.0227700162700721,-0.21755244145254407,0.0,0.0,0.0,0.0,1
500bus.pwf,16,273,1.022618186825177,-0.21790146845816694,0.09492,0.025310000000000003,0.0,0.0,1
500bus.pwf,16,274,1.0256941982502077,-0.06296195177209678,0.0,0.0,0.0,0.0,1
500bus.pwf,16,275,1.0256941982502077,-0.06296195177209678,0.0,0.0,0.0,0.0,2
500bus.pwf,16,276,1.0110362312788725,-0.20342268405999075,0.0,0.0,0.0,0.0,1
500bus.pwf,16,277,1.0110302981059618,-0.2034366459137195,0.004050000000000001,0.00108,0.0,0.0,1
500bus.pwf,16,278,1.0109475819760096,-0.20363204945188987,0.05769,0.01538,0.0,0.0,1
500bus.pwf,16,279,1.00384123891585,-0.1537006758398101,0.0,0.0,0.0,0.0,1
500bus.pwf,16,280,1.0035854679242724,-0.15418773744621597,0.16940000000000002,0.04518,0.0,0.0,1
500bus.pwf,16,281,1.003387766067081,-0.25656480772990825,0.0,0.0,0.0,0.0,1
500bus.pwf,16,282,1.0016152405027823,-0.2606181536992258,1.173,0.3128,0.0,0.0,1
500bus.pwf,16,283,1.0158990632400866,-0.21332093474954195,0.0,0.0,0.0,0.0,1
500bus.pwf,16,284,1.0153487237887984,-0.2145289115417965,0.3265,0.08706,0.0,0.0,1
500bus.pwf,16,285,1.0311477886160614,-0.23106086153834166,0.0,0.0,0.0,0.0,1
500bus.pwf,16,286,1.0310187999804463,-0.23129989363237438,0.08268,0.02205,0.0,0.0,1
500bus.pwf,16,287,1.0088499892870073,-0.18233991612344344,0.0,0.0,0.0,0.0,1
500bus.pwf,16,288,1.0079689247247732,-0.18444454167863567,0.5811,0.155,0.0,0.0,1
500bus.pwf,16,289,1.0194352556485538,-0.07936304612717578,0.0,0.0,0.0,0.0,1
500bus.pwf,16,290,1.019378595277641,-0.07949303747358938,0.0369,0.00984,0.0,0.0,1
500bus.pwf,16,291,1.0038841270674685,-0.21139058365436808,0.0,0.0,0.0,0.0,1
500bus.pwf,16,292,1.0037749067157944,-0.21162237204766587,0.07617,0.02031,0.0,0.0,1
500bus.pwf,16,293,1.0200593192100693,-0.22327737632468347,0.0,0.0,0.0,0.0,1
500bus.pwf,16,294,1.0196760757957215,-0.22404504748650877,0.2561,0.06828000000000001,0.0,0.0,1
500bus.pwf,16,295,1.0226795834488651,-0.16588468994529212,0.0,0.0,0.0,0.0,1
500bus.pwf,16,296,1.0225687210382777,-0.1661297445903134,0.07788,0.02077,0.0,0.0,1
500bus.pwf,16,297,1.0195501449541287,-0.15076609567128202,0.0,0.0,0.0,0.0,1
500bus.pwf,16,298,1.0165357276768296,-0.1755664498932375,0.0,0.0,0.0,0.0,1
500bus.pwf,16,299,1.0163186347938784,-0.1760585605360803,0.1457,0.038849999999999996,0.0,0.0,1
500bus.pwf,16,300,1.0062455353526818,-0.043450436537492615,0.0,0.0,0.0,0.0,1
500bus.pwf,16,301,1.0068129423816563,-0.041139335608602626,0.0,0.0,0.028999999999999998,0.006189125282320312,2
500bus.pwf,16,302,1.006805965963683,-0.04122922363597953,0.0,0.0,0.028999999999999998,0.00587584984089861,2
500bus.pwf,16,303,1.0047620253831262,-0.046732417207440716,0.8676,0.2314,0.0,0.0,1
500bus.pwf,16,304,0.9879234216279916,-0.23927018740823344,0.0,0.0,0.0,0.0,1
500bus.pwf,16,305,0.9878517712632942,-0.23376826087148425,0.0,0.0,0.01,-0.0004900058133343023,2
500bus.pwf,16,306,0.9877329858696869,-0.23311703151927232,0.0,0.0,0.024,-0.0011800060445727111,2
500bus.pwf,16,307,0.9867851980543418,-0.2418601307794685,0.7604000000000001,0.2028,0.0,0.0,1
500bus.pwf,16,308,1.0188073823168382,-0.21616067181518525,0.0,0.0,0.0,0.0,1
500bus.pwf,16,309,1.0186513052714679,-0.21649252349350148,0.09029999999999999,0.02408,0.0,0.0,1
500bus.pwf,16,310,1.015105745238957,-0.2738182360597469,0.0,0.0,0.0,0.0,1
500bus.pwf,16,311,1.0144199733195545,-0.2752740163930167,0.43829999999999997,0.11689999999999999,0.0,0.0,1
500bus.pwf,16,312,1.018905856684,-0.25390763357629625,0.0,0.0,0.0,0.0,1
500bus.pwf,16,313,1.0186975318401263,-0.2543636350602935,0.1244,0.033170000000000005,0.0,0.0,1
500bus.pwf,16,314,1.0245215133902832,-0.18294439205166124,0.0,0.0,0.0,0.0,1
500bus.pwf,16,315,1.0245151881864565,-0.18295646623799514,0.00426,0.00114,0.0,0.0,1
500bus.pwf,16,316,1.019036278537072,-0.01217637420681785,0.0,0.0,0.0,0.0,1
500bus.pwf,16,317,1.0189816899241988,-0.01227998504721962,0.03753,0.010009999999999998,0.0,0.0,1
500bus.pwf,16,318,1.021454156031152,-0.02713443283907181,0.0,0.0,0.0,0.0,1
500bus.pwf,16,319,1.0335601526538516,0.003020302199920144,0.0,0.0,0.423,0.16239998944198922,2
500bus.pwf,16,320,0.9969861825251342,-0.2445693161207127,0.0,0.0,0.0,0.0,1
500bus.pwf,16,321,0.9945670008401383,-0.24980487425433387,1.504,0.4011,0.0,0.0,1
500bus.pwf,16,322,1.0015643957888611,-0.21495707550513232,0.0,0.0,0.0,0.0,1
500bus.pwf,16,323,1.0008901836808408,-0.21628181527229492,0.45270000000000005,0.1207,0.0,0.0,1
500bus.pwf,16,324,0.9918448039785709,-0.2348607542800704,0.0,0.0,0.0,0.0,1
500bus.pwf,16,325,0.9902416102538534,-0.2386218643285055,1.035,0.2759,0.0,0.0,1
500bus.pwf,16,326,1.008906157690578,-0.22433958266220272,0.0,0.0,0.0,0.0,1
500bus.pwf,16,327,1.0071898181237509,-0.2279637244150565,1.2109999999999999,0.32280000000000003,0.0,0.0,1
500bus.pwf,16,328,1.0043992180432328,-0.19977141249949598,0.0,0.0,0.0,0.0,1
500bus.pwf,16,329,1.0040437549935841,-0.20051576956315945,0.2602,0.06938,0.0,0.0,1
500bus.pwf,16,330,1.0145186944552695,-0.14008784176827732,0.0,0.0,0.0,0.0,1
500bus.pwf,16,331,1.0136107495235136,-0.14216134989854826,0.5717,0.1525,0.0,0.0,1
500bus.pwf,16,332,1.0285832867974978,-0.09857794869932175,0.0,0.0,0.0,0.0,1
500bus.pwf,16,333,1.0199281529459954,-0.1262658104839724,0.0,0.0,0.0,0.0,1
500bus.pwf,16,334,1.0199206544857982,-0.12628033998170518,0.00501,0.00134,0.0,0.0,1
500bus.pwf,16,335,1.0199152434200565,-0.12629293975236586,0.00834,0.00222,0.0,0.0,1
500bus.pwf,16,336,1.0157871482300742,-0.04976084848551036,0.0,0.0,0.0,0.0,1
500bus.pwf,16,337,1.0156975706449387,-0.04996726203316837,0.05673,0.01513,0.0,0.0,1
500bus.pwf,16,338,1.0112455244765524,0.1281892541245024,0.0,0.0,0.0,0.0,1
500bus.pwf,16,339,1.010107542166581,0.12563001032357243,0.7511,0.2003,0.0,0.0,1
500bus.pwf,16,340,1.0023987103683052,-0.16562651097521996,0.0,0.0,0.0,0.0,1
500bus.pwf,16,341,1.0020007334856427,-0.16651452555273646,0.2422,0.06459,0.0,0.0,1
500bus.pwf,16,342,1.0111907411282914,-0.22080749485480616,0.0,0.0,0.0,0.0,1
500bus.pwf,16,343,1.0111523303818837,-0.22089280338813425,0.02511,0.0067,0.0,0.0,1
500bus.pwf,16,344,1.0111520853145781,-0.22089598113961273,0.024300000000000002,0.0064800000000000005,0.0,0.0,1
500bus.pwf,16,345,0.9975918920391291,-0.22467898391774768,0.0,0.0,0.0,0.0,1
500bus.pwf,16,346,0.9969197817647394,-0.22613234115173095,0.4758,0.12689999999999999,0.0,0.0,1
500bus.pwf,16,347,0.9889297550311421,-0.22213602851373496,0.0,0.0,0.0,0.0,1
500bus.pwf,16,348,0.9876918224692098,-0.22475832873754184,0.8640000000000001,0.2304,0.0,0.0,1
500bus.pwf,16,349,1.0194331117884368,-0.2010077833547729,0.0,0.0,0.0,0.0,1
500bus.pwf,16,350,1.0237035400248709,-0.190861555757437,0.0,0.0,0.15,0.05615040629350106,2
500bus.pwf,16,351,1.021505504072301,-0.19637834442126342,0.0,0.0,0.062,0.02380995744576462,2
500bus.pwf,16,352,1.0237043509869916,-0.19121882784960134,0.0,0.0,0.14400000000000002,0.05524761669148565,2
500bus.pwf,16,353,1.0397057718363485,-0.15129865017073083,0.0,0.0,0.74,0.282394049059616,2
500bus.pwf,16,354,1.0218240250556077,-0.12376868147645796,0.0,0.0,0.0,0.0,1
500bus.pwf,16,355,1.0214933707556078,-0.1244526122825695,0.1996,0.053239999999999996,0.0,0.0,1
500bus.pwf,16,356,1.01869249234121,-0.2614194971695452,0.0,0.0,0.0,0.0,1
500bus.pwf,16,357,1.0178878661471458,-0.2631809390795184,0.5573,0.14859999999999998,0.0,0.0,1
500bus.pwf,16,358,1.020389718097547,-0.2824802319355473,0.0,0.0,0.0,0.0,1
500bus.pwf,16,359,1.0201541666556724,-0.2829455442089,0.1459,0.038900000000000004,0.0,0.0,1
500bus.pwf,16,360,1.0014102844779937,-0.17756714116210778,0.0,0.0,0.0,0.0,1
500bus.pwf,16,361,1.0014102844779937,-0.17756714116210778,0.0,0.0,0.0,0.0,2
500bus.pwf,16,362,1.0014102844779937,-0.17756714116210778,0.0,0.0,0.0,0.0,2
500bus.pwf,16,363,1.0014102844779937,-0.17756714116210778,0.0,0.0,0.0,0.0,2
500bus.pwf,16,364,1.0009649451862246,-0.17860600220178693,0.3044,0.08117,0.0,0.0,1
500bus.pwf,16,365,1.004783921068262,-0.2112412877493664,0.0,0.0,0.0,0.0,1
500bus.pwf,16,366,1.0038900094160583,-0.21335328365886339,0.5649000000000001,0.1506,0.0,0.0,1
500bus.pwf,16,367,1.0141855699187694,-0.11154419731020841,0.0,0.0,0.0,0.0,1
500bus.pwf,16,368,1.014029814661939,-0.1118866367238991,0.11449999999999999,0.030539999999999998,0.0,0.0,1
500bus.pwf,16,369,1.0173326045556566,-0.09376251242704566,0.0,0.0,0.0,0.0,1
500bus.pwf,16,370,1.0168463057186543,-0.09476441704246244,0.35600000000000004,0.09494,0.0,0.0,1
500bus.pwf,16,371,1.0275405659044259,-0.11294879867094691,0.0,0.0,0.0,0.0,1
500bus.pwf,16,372,1.0179741238059739,-0.17558399080243375,0.0,0.0,0.0,0.0,1
500bus.pwf,16,373,1.0175686085742952,-0.1764264194756708,0.2884,0.07690000000000001,0.0,0.0,1
500bus.pwf,16,374,1.0016520864617275,-0.21915900619820602,0.0,0.0,0.0,0.0,1
500bus.pwf,16,375,1.0013296443926434,-0.21986874760230446,0.2477,0.06604,0.0,0.0,1
500bus.pwf,16,376,1.0072298951001935,-0.15858750838340052,0.0,0.0,0.0,0.0,1
500bus.pwf,16,377,1.0059709541021151,-0.16146079519248857,0.9039,0.24100000000000002,0.0,0.0,1
500bus.pwf,16,378,1.0198844846105783,-0.0329487054407659,0.0,0.0,0.0,0.0,1
500bus.pwf,16,379,1.0196796214238562,-0.03340688957923769,0.1301,0.0347,0.0,0.0,1
500bus.pwf,16,380,1.0106602641582154,-0.14066722202855192,0.0,0.0,0.0,0.0,1
500bus.pwf,16,381,1.0105105585227034,-0.14100925719662769,0.1013,0.02702,0.0,0.0,1
500bus.pwf,16,382,1.0259765578040918,-0.25892360896804045,0.0,0.0,0.0,0.0,1
500bus.pwf,16,383,1.0255391080216032,-0.2598995468368673,0.2995,0.07986,0.0,0.0,1
500bus.pwf,16,384,1.0003150082925496,-0.2308950606595115,0.0,0.0,0.0,0.0,1
500bus.pwf,16,385,0.9997967407146955,-0.23199191356410084,0.36619999999999997,0.09766,0.0,0.0,1
500bus.pwf,16,386,1.025146529107559,-0.0621483264399495,0.0,0.0,0.0,0.0,1
500bus.pwf,16,387,1.0199372849070696,-0.09270647607897865,0.0,0.0,0.0,0.0,1
500bus.pwf,16,388,1.025146529107559,-0.0621483264399495,0.0,0.0,0.0,0.0,2
500bus.pwf,16,389,1.025146529107559,-0.0621483264399495,0.0,0.0,0.0,0.0,2
500bus.pwf,16,390,1.025146529107559,-0.0621483264399495,0.0,0.0,0.0,0.0,2
500bus.pwf,16,391,1.025146529107559,-0.0621483264399495,0.0,0.0,0.0,0.0,2
500bus.pwf,16,392,1.025146529107559,-0.0621483264399495,0.0,0.0,0.0,0.0,2
500bus.pwf,16,393,1.025146529107559,-0.0621483264399495,0.0,0.0,0.0,0.0,2
500bus.pwf,16,394,1.025146529107559,-0.0621483264399495,0.0,0.0,0.0,0.0,2
500bus.pwf,16,395,1.025146529107559,-0.0621483264399495,0.0,0.0,0.0,0.0,2
500bus.pwf,16,396,1.025146529107559,-0.0621483264399495,0.0,0.0,0.0,0.0,2
500bus.pwf,16,397,1.0193899477273989,-0.09392176115658632,0.3995,0.1065,0.0,0.0,1
500bus.pwf,16,398,1.0196868221867144,-0.09317739834516227,0.1677,0.04471,0.0,0.0,1
500bus.pwf,16,399,1.0221079007228546,-0.22220861848268386,0.0,0.0,0.0,0.0,1
500bus.pwf,16,400,1.0217124889737317,-0.22304203561941244,0.2302,0.061399999999999996,0.0,0.0,1
500bus.pwf,16,401,1.0076979706631022,0.07146372779078772,0.0,0.0,0.0,0.0,1
500bus.pwf,16,402,1.0063753783276859,0.06834848890099156,0.8835,0.23559999999999998,0.0,0.0,1
500bus.pwf,16,403,1.0126505645437376,-0.21404239301009936,0.0,0.0,0.0,0.0,1
500bus.pwf,16,404,1.0123493765592089,-0.21467915749291203,0.1977,0.05272,0.0,0.0,1
500bus.pwf,16,405,1.0052377738468674,-0.054587301177521086,0.0,0.0,0.0,0.0,1
500bus.pwf,16,406,1.0051577880871643,-0.05476372068854979,0.0525,0.013999999999999999,0.0,0.0,1
500bus.pwf,16,407,1.0333469069734156,-0.1588026900281362,0.0,0.0,0.0,0.0,1
500bus.pwf,16,408,1.027051550409846,-0.19568861718955655,0.0,0.0,0.0,0.0,1
500bus.pwf,16,409,1.0333469069734156,-0.1588026900281362,0.0,0.0,0.0,0.0,2
500bus.pwf,16,410,1.0390130464761107,-0.12778517398662864,0.0,0.0,0.7943000000000001,0.1474664686805519,2
500bus.pwf,16,411,1.038237318773848,-0.14144326340795038,0.0,0.0,0.7943000000000001,0.21762319665220523,2
500bus.pwf,16,412,1.0384623716904964,-0.1389049920826468,0.0,0.0,0.7943000000000001,0.19924912792470978,2
500bus.pwf,16,413,1.0389738290501032,-0.13571849600426472,0.0,0.0,0.616,0.14339215802864358,2
500bus.pwf,16,414,1.0333469069734156,-0.1588026900281362,0.0,0.0,0.0,0.0,2
500bus.pwf,16,415,1.004305248736827,-0.19963505395799244,0.0,0.0,0.0,0.0,1
500bus.pwf,16,416,1.0042117292502024,-0.1998570566272194,0.060629999999999996,0.01617,0.0,0.0,1
500bus.pwf,16,417,0.998150962103117,-0.19176717830519377,0.0,0.0,0.0,0.0,1
500bus.pwf,16,418,0.997136734392876,-0.19390460869325404,0.6362,0.1696,0.0,0.0,1
500bus.pwf,16,419,1.013412548180822,-0.265855227682719,0.0,0.0,0.0,0.0,1
500bus.pwf,16,420,1.0133250586965739,-0.2660375742308075,0.05226,0.01394,0.0,0.0,1
500bus.pwf,16,421,1.0129315433241193,-0.147783844715579,0.0,0.0,0.0,0.0,1
500bus.pwf,16,422,1.0122231469525578,-0.14919321048560422,0.4918,0.1311,0.0,0.0,1
500bus.pwf,16,423,0.9974728138252535,0.05754833276669434,0.0,0.0,0.0,0.0,1
500bus.pwf,16,424,0.9947499491036782,0.051719166157457905,1.571,0.4189,0.0,0.0,1
500bus.pwf,16,425,1.0187094450392769,-0.15570421444259208,0.0,0.0,0.0,0.0,1
500bus.pwf,16,426,1.0134247311308178,-0.19585052546682694,0.0,0.0,0.0,0.0,1
500bus.pwf,16,427,1.0132128632996174,-0.19625039911804382,0.14429999999999998,0.03849,0.0,0.0,1
500bus.pwf,16,428,1.0301439445430038,-0.09575606808736817,0.0,0.0,0.0,0.0,1
500bus.pwf,16,429,1.0198067445456582,-0.1272076076070417,0.0,0.0,0.0,0.0,1
500bus.pwf,16,430,1.0303920477479949,-0.09516162879347413,0.0,0.0,0.01,0.0038399859288476266,2
500bus.pwf,16,431,1.0306033645718105,-0.09462719321816106,0.0,0.0,0.033,0.012669947924539232,2
500bus.pwf,16,432,1.03028862101719,-0.09539808881950218,0.0,0.0,0.012,0.004609969459926196,2
500bus.pwf,16,433,1.032446402208017,-0.09004406217484473,0.0,0.0,0.067,0.025729991368308936,2
500bus.pwf,16,434,1.0305187489263665,-0.09484368773091739,0.0,0.0,0.043,0.01650992910900157,2
500bus.pwf,16,435,1.0301439445430038,-0.09575606808736817,0.0,0.0,0.0,0.0,2
500bus.pwf,16,436,1.0301439445430038,-0.09575606808736817,0.0,0.0,0.0,0.0,2
500bus.pwf,16,437,1.0400467944398837,-0.061919003618288525,0.0,0.0,1.97,0.5768392432708959,2
500bus.pwf,16,438,1.040037342758181,-0.05326333574722556,0.0,0.0,1.97,0.4402909819007826,2
500bus.pwf,16,439,1.040059428164237,-0.06913569720070742,0.0,0.0,1.97,0.7201029164139744,2
500bus.pwf,16,440,1.01610438246081,-0.1302552751410892,0.0,0.0,0.0,0.0,1
500bus.pwf,16,441,1.002237573069769,-0.20115214015084412,0.0,0.0,0.0,0.0,1
500bus.pwf,16,442,1.01610438246081,-0.1302552751410892,0.0,0.0,0.0,0.0,2
500bus.pwf,16,443,1.01610438246081,-0.1302552751410892,0.0,0.0,0.0,0.0,2
500bus.pwf,16,444,1.01610438246081,-0.1302552751410892,0.0,0.0,0.0,0.0,2
500bus.pwf,16,445,1.0068811464185807,-0.16484368976290814,0.0,0.0,0.0,0.0,1
500bus.pwf,16,446,1.0054341126473876,-0.1678200363447737,0.8868,0.2365,0.0,0.0,1
500bus.pwf,16,447,1.0187040965474796,-0.13868189747149925,0.0,0.0,0.0,0.0,1
500bus.pwf,16,448,1.0177952322318384,-0.14072923974712861,0.5756,0.1535,0.0,0.0,1
500bus.pwf,16,449,1.0113721960482003,-0.14833143882956326,0.0,0.0,0.0,0.0,1
500bus.pwf,16,450,1.0113564854305506,-0.14836640469965381,0.01122,0.00299,0.0,0.0,1
500bus.pwf,16,451,1.0113420089735834,-0.14839742080551463,0.022109999999999998,0.0059,0.0,0.0,1
500bus.pwf,16,452,1.01647037158156,0.059401163020406655,0.1116,0.029769999999999998,0.0,0.0,1
500bus.pwf,16,453,1.03068961234637,-0.11805699678460489,0.0,0.0,0.0,0.0,1
500bus.pwf,16,454,1.0119802174051058,-0.1929197231513199,0.0,0.0,0.0,0.0,1
500bus.pwf,16,455,1.0409089440574377,-0.10814517642434969,0.0,0.0,0.6685,0.6507601598344775,2
500bus.pwf,16,456,1.040880604123072,-0.09735735428258567,0.0,0.0,1.337,0.6377030507447539,2
500bus.pwf,16,457,1.0195163702728276,-0.12514530587874254,0.0,0.0,0.0,0.0,1
500bus.pwf,16,458,1.0187170612669287,-0.04890221578019712,0.0,0.0,1.0959999999999999,0.0,2
500bus.pwf,16,459,1.0094032170768164,0.11990452011229044,0.7447,0.1986,0.0,0.0,1
500bus.pwf,16,460,1.0042112147683118,-0.1646550086593294,0.2634,0.07025,0.0,0.0,1
500bus.pwf,16,461,1.002223878078118,-0.16402634721680406,0.9172,0.2446,0.0,0.0,1
500bus.pwf,16,462,1.024871550845574,-0.13165777274361856,0.0,0.0,0.0,0.0,1
500bus.pwf,16,463,1.024871550845574,-0.13165777274361856,0.0,0.0,0.0,0.0,2
500bus.pwf,16,464,1.027924581112749,-0.10046178951087843,0.0,0.0,0.0,0.0,1
500bus.pwf,16,465,1.0254595258983155,-0.11845906493622356,0.1252,0.03339,0.0,0.0,1
500bus.pwf,16,466,1.017949184267945,-0.1322022661435523,0.4334,0.11560000000000001,0.0,0.0,1
500bus.pwf,16,467,1.0140143310398093,-0.11653616034763052,0.00807,0.00215,0.0,0.0,1
500bus.pwf,16,468,1.0062156298962737,-0.14225762378470672,0.03762,0.010029999999999999,0.0,0.0,1
500bus.pwf,16,469,0.991556720488413,-0.2033782205869572,1.285,0.3427,0.0,0.0,1
500bus.pwf,16,470,1.0152160162532524,-0.10959249275563006,0.42560000000000003,0.11349999999999999,0.0,0.0,1
500bus.pwf,16,471,1.0285592660130058,-0.09499225527389517,0.0,0.0,0.0,0.0,1
500bus.pwf,16,472,1.0217258465431114,-0.12106338534359304,0.4971,0.1326,0.0,0.0,1
500bus.pwf,16,473,1.0158707554930353,-0.10242789289379141,0.00999,0.00266,0.0,0.0,1
500bus.pwf,16,474,1.0013535445667805,-0.16795139717592725,0.0,0.0,0.0,0.0,1
500bus.pwf,16,475,1.0162278352795993,-0.10142596661730963,0.0016200000000000001,0.00043,0.0,0.0,1
500bus.pwf,16,476,1.012068689196823,-0.1971978364716743,0.5986,0.15960000000000002,0.0,0.0,1
500bus.pwf,16,477,1.0236953731902798,-0.15185688217816798,0.0,0.0,0.0,0.0,1
500bus.pwf,16,478,1.0189195265514832,-0.07421856742816649,0.0,0.0,0.0,0.0,1
500bus.pwf,16,479,1.0331436117689103,-0.09436210686066615,0.0,0.0,0.0,0.0,1
500bus.pwf,16,480,1.040458631406744,-0.061758960611128885,0.0,0.0,0.56,0.10829692714020647,2
500bus.pwf,16,481,1.04052464239067,-0.07145207242949908,0.0,0.0,0.45,0.13616010808162313,2
500bus.pwf,16,482,1.0388798778068187,-0.08121880767346432,0.0,0.0,0.45,0.17279998054850754,2
500bus.pwf,16,483,1.0402869710482543,-0.07209813405990531,0.0,0.0,0.24,0.06828553651002811,2
500bus.pwf,16,484,1.039111870859803,-0.0801916129047464,0.0,0.0,0.28,0.1074999676081738,2
500bus.pwf,16,485,1.0081211790119682,-0.20760198413284658,0.2788,0.07434,0.0,0.0,1
500bus.pwf,16,486,1.011122015097762,-0.19238755401044202,0.6853,0.18280000000000002,0.0,0.0,1
500bus.pwf,16,487,1.0369258117696445,-0.2631729461077871,0.1167,0.031110000000000002,0.0,0.0,1
500bus.pwf,16,488,0.9892979087402554,-0.2068111680439897,0.9790000000000001,0.2611,0.0,0.0,1
500bus.pwf,16,489,1.02389457838569,-0.20036858148911868,0.0,0.0,0.0,0.0,1
500bus.pwf,16,490,0.9987181252755322,-0.22433447886983915,0.2981,0.0795,0.0,0.0,1
500bus.pwf,16,491,1.0117202382580706,-0.22620321693302153,1.195,0.3187,0.0,0.0,1
500bus.pwf,16,492,1.004408316773358,-0.06672798504681368,0.5954,0.1588,0.0,0.0,1
500bus.pwf,16,493,1.016482005131205,-0.11339202407146298,0.04047,0.01079,0.0,0.0,1
500bus.pwf,16,494,1.016482005131205,-0.11339202407146298,0.0,0.0,0.0,0.0,2
500bus.pwf,16,495,1.0089324315979107,-0.15453100686737165,0.7517,0.2005,0.0,0.0,1
500bus.pwf,16,496,1.0126370460952996,0.12457798272090748,0.0,0.0,0.0,0.0,1
500bus.pwf,16,497,1.0269841963542472,0.16159651577565087,0.0,0.0,0.6,0.22511256056915488,2
500bus.pwf,16,498,1.0209912907898615,0.144780367862917,0.0,0.0,0.18,0.06822195395611579,2
500bus.pwf,16,499,1.0006088781226234,-0.23041241088300624,1.2229999999999999,0.3262,0.0,0.0,1
500bus.pwf,16,500,1.0230077801231112,-0.20017245101883824,0.0,0.0,0.0,0.0,1
